flanduse_timeseries='/cluster/work/users/kjetisaa/isimip_forc/Ohter_modified_files/landuse.timeseries_1.9x2.5_SSP1-2.6_78pfts_CMIP6_simyr1850-2100_ESM2025_nattobio.nc'
fsurdat='/cluster/work/users/kjetisaa/isimip_forc/Ohter_modified_files/surfdata_1.9x2.5_hist_78pfts_CMIP6_simyr1850_ESM2025.nc'
use_init_interp=.true.
stream_fldfilename_ndep = '/cluster/work/users/kjetisaa/isimip_forc/Ohter_modified_files/fndep_clm_f09_g17.CMIP6-SSP1-2.6-WACCM_1849-2101_monthly_ESM2025.nc'
hist_mfilt = 1,1
hist_nhtfrq = 0,0
hist_fincl2 = 'TSA', 'RAIN', 'SNOW', 'FSDS', 'SOILWATER_10CM', 'SOILLIQ', 'SOILICE', 'QRUNOFF', 'QVEGE','QVEGT','QSOIL', 'TLAI','FCEV','FCTR','FGEV','FSH','GPP','HTOP','NBP','NPP','TOTVEGC','TV','GRAINC_TO_FOOD'
hist_dov2xy = .true.,.false.
 finidat = 'ESM2025_UKESM1-0-LL_BGC-CROP_HIST_f19_g17_historical.clm2.r.2015-01-01-00000.nc' 
flanduse_timeseries='/cluster/work/users/kjetisaa/isimip_forc/Ohter_modified_files/landuse.timeseries_1.9x2.5_SSP1-2.6_78pfts_CMIP6_simyr1850-2100_ESM2025_noluc.nc'
fsurdat='/cluster/work/users/kjetisaa/isimip_forc/Ohter_modified_files/surfdata_1.9x2.5_hist_78pfts_CMIP6_simyr1850_ESM2025.nc'
use_init_interp=.true.
stream_fldfilename_ndep = '/cluster/work/users/kjetisaa/isimip_forc/Ohter_modified_files/fndep_clm_f09_g17.CMIP6-SSP1-2.6-WACCM_1849-2101_monthly_ESM2025.nc'
hist_mfilt = 1,1
hist_nhtfrq = 0,0
hist_fincl2 = 'TSA', 'RAIN', 'SNOW', 'FSDS', 'SOILWATER_10CM', 'SOILLIQ', 'SOILICE', 'QRUNOFF', 'QVEGE','QVEGT','QSOIL', 'TLAI','FCEV','FCTR','FGEV','FSH','GPP','HTOP','NBP','NPP','TOTVEGC','TV','GRAINC_TO_FOOD'
hist_dov2xy = .true.,.false.
 finidat = 'ESM2025_UKESM1-0-LL_BGC-CROP_HIST_f19_g17_historical.clm2.r.2015-01-01-00000.nc' 
flanduse_timeseries='/cluster/work/users/kjetisaa/isimip_forc/Ohter_modified_files/landuse.timeseries_1.9x2.5_SSP3-7.0_78pfts_CMIP6_simyr1850-2100_ESM2025_noluc.nc'
fsurdat='/cluster/work/users/kjetisaa/isimip_forc/Ohter_modified_files/surfdata_1.9x2.5_hist_78pfts_CMIP6_simyr1850_ESM2025.nc'
use_init_interp=.true.
stream_fldfilename_ndep = '/cluster/work/users/kjetisaa/isimip_forc/Ohter_modified_files/fndep_clm_f09_g17.CMIP6-SSP3-7.0-WACCM_1849-2101_monthly_ESM2025.nc'
hist_mfilt = 1,1
hist_nhtfrq = 0,0
hist_fincl2 = 'TSA', 'RAIN', 'SNOW', 'FSDS', 'SOILWATER_10CM', 'SOILLIQ', 'SOILICE', 'QRUNOFF', 'QVEGE','QVEGT','QSOIL', 'TLAI','FCEV','FCTR','FGEV','FSH','GPP','HTOP','NBP','NPP','TOTVEGC','TV','GRAINC_TO_FOOD'
hist_dov2xy = .true.,.false.
 finidat = 'ESM2025_UKESM1-0-LL_BGC-CROP_HIST_f19_g17_historical.clm2.r.2015-01-01-00000.nc' 
